
  EPA STORM WATER MANAGEMENT MODEL - VERSION 5.2 (Build 5.2.4)
  PYSWMM TOOLKIT API - VERSION v1.0 (2025-09-04)
  ------------------------------------------------------------

  WARNING 04: minimum elevation drop used for Conduit 2624-2618
  WARNING 04: minimum elevation drop used for Conduit 2686-2647
  
  ****************
  Analysis Options
  ****************
  Flow Units ............... LPS
  Process Models:
    Rainfall/Runoff ........ YES
    RDII ................... NO
    Snowmelt ............... YES
    Groundwater ............ NO
    Flow Routing ........... YES
    Ponding Allowed ........ NO
    Water Quality .......... NO
  Infiltration Method ...... HORTON
  Flow Routing Method ...... DYNWAVE
  Surcharge Method ......... EXTRAN
  Starting Date ............ 01/01/2000 00:00:00
  Ending Date .............. 01/01/2000 23:59:00
  Antecedent Dry Days ...... 0.0
  Report Time Step ......... 00:15:00
  Wet Time Step ............ 00:05:00
  Dry Time Step ............ 01:00:00
  Routing Time Step ........ 5.00 sec
  Variable Time Step ....... YES
  Maximum Trials ........... 8
  Number of Threads ........ 1
  Head Tolerance ........... 0.001524 m
  
  
  *********************
  Rainfall File Summary
  *********************
  Station    First        Last         Recording   Periods    Periods    Periods
  ID         Date         Date         Frequency  w/Precip    Missing    Malfunc.
  -------------------------------------------------------------------------------
  1          01/01/2000   01/01/2000       5 min         4          0          0

  
  
  **************************        Volume         Depth
  Runoff Quantity Continuity     hectare-m            mm
  **************************     ---------       -------
  Initial Snow Cover .......         0.000         0.000
  Total Precipitation ......         1.805         5.250
  Evaporation Loss .........         0.000         0.000
  Infiltration Loss ........         0.000         0.000
  Surface Runoff ...........         1.805         5.250
  Snow Removed .............         0.000         0.000
  Final Snow Cover .........         0.000         0.000
  Final Storage ............         0.000         0.000
  Continuity Error (%) .....         0.000
  
  
  **************************        Volume        Volume
  Flow Routing Continuity        hectare-m      10^6 ltr
  **************************     ---------     ---------
  Dry Weather Inflow .......         0.000         0.000
  Wet Weather Inflow .......         1.802        18.023
  Groundwater Inflow .......         0.000         0.000
  RDII Inflow ..............         0.000         0.000
  External Inflow ..........         0.000         0.000
  External Outflow .........         0.670         6.697
  Flooding Loss ............         0.663         6.628
  Evaporation Loss .........         0.000         0.000
  Exfiltration Loss ........         0.000         0.000
  Initial Stored Volume ....         0.000         0.000
  Final Stored Volume ......         0.343         3.432
  Continuity Error (%) .....         7.022
  
  
  *************************
  Highest Continuity Errors
  *************************
  Node 2903 (95.24%)
  Node 1745 (89.77%)
  Node 2928 (79.17%)
  Node 1125 (70.27%)
  Node 3163 (67.65%)
  
  
  ***************************
  Time-Step Critical Elements
  ***************************
  Link 1447-1325 (7.39%)
  Link 1049-1076 (4.80%)
  Link 900-941 (1.83%)
  Link 1326-1327 (1.11%)
  
  
  ********************************
  Highest Flow Instability Indexes
  ********************************
  Link 1581-1582 (115)
  Link 1582-1578 (98)
  Link 763-759 (62)
  Link 1669-762 (17)
  Link 804-1669 (13)
  
  
  *********************************
  Most Frequent Nonconverging Nodes
  *********************************
  Convergence obtained at all time steps.
  
  
  *************************
  Routing Time Step Summary
  *************************
  Minimum Time Step           :     0.50 sec
  Average Time Step           :     4.43 sec
  Maximum Time Step           :     5.00 sec
  % of Time in Steady State   :     0.00
  Average Iterations per Step :     2.26
  % of Steps Not Converging   :     0.29
  Time Step Frequencies       :
      5.000 -  3.155 sec      :    84.79 %
      3.155 -  1.991 sec      :     4.50 %
      1.991 -  1.256 sec      :     4.31 %
      1.256 -  0.792 sec      :     4.98 %
      0.792 -  0.500 sec      :     1.43 %
  
  
  ***************************
  Subcatchment Runoff Summary
  ***************************
  
  ------------------------------------------------------------------------------------------------------------------------------
                            Total      Total      Total      Total     Imperv       Perv      Total       Total     Peak  Runoff
                           Precip      Runon       Evap      Infil     Runoff     Runoff     Runoff      Runoff   Runoff   Coeff
  Subcatchment                 mm         mm         mm         mm         mm         mm         mm    10^6 ltr      LPS
  ------------------------------------------------------------------------------------------------------------------------------
  3141-sub                   5.25       0.00       0.00       0.00       0.48       4.77       5.25        0.00     7.67   1.000
  3126-sub                   5.25       0.00       0.00       0.00       1.48       3.77       5.25        0.01    15.35   1.000
  1864-sub                   5.25       0.00       0.00       0.00       2.03       3.22       5.25        0.00     7.67   1.000
  1736-sub                   5.25       0.00       0.00       0.00       2.36       2.89       5.25        0.00     7.67   1.000
  1298-sub                   5.25       0.00       0.00       0.00       1.23       4.02       5.25        0.00     7.67   1.000
  1297-sub                   5.25       0.00       0.00       0.00       0.30       4.95       5.25        0.00     7.67   1.000
  3-sub                      5.25       0.00       0.00       0.00       0.39       4.86       5.25        0.01    23.02   1.000
  3193-sub                   5.25       0.00       0.00       0.00       4.80       0.45       5.25        0.00     7.67   1.000
  1941-sub                   5.25       0.00       0.00       0.00       3.58       1.67       5.25        0.01    15.35   1.000
  1737-sub                   5.25       0.00       0.00       0.00       2.71       2.54       5.25        0.02    38.37   1.000
  3229-sub                   5.25       0.00       0.00       0.00       2.66       2.59       5.25        0.02    30.69   1.000
  1309-sub                   5.25       0.00       0.00       0.00       2.51       2.74       5.25        0.01    15.35   1.000
  1296-sub                   5.25       0.00       0.00       0.00       1.48       3.77       5.25        0.01    23.02   1.000
  1203-sub                   5.25       0.00       0.00       0.00       0.00       5.25       5.25        0.01    15.35   1.000
  1220-sub                   5.25       0.00       0.00       0.00       0.56       4.69       5.25        0.01    23.02   1.000
  1219-sub                   5.25       0.00       0.00       0.00       4.04       1.21       5.25        0.01    15.35   1.000
  1138-sub                   5.25       0.00       0.00       0.00       1.47       3.78       5.25        0.01    15.35   1.000
  124-sub                    5.25       0.00       0.00       0.00       1.74       3.51       5.25        0.01    23.02   1.000
  126-sub                    5.25       0.00       0.00       0.00       1.99       3.26       5.25        0.02    30.69   1.000
  113-sub                    5.25       0.00       0.00       0.00       4.09       1.16       5.25        0.02    30.69   1.000
  2174-sub                   5.25       0.00       0.00       0.00       3.32       1.93       5.25        0.00     7.67   1.000
  2065-sub                   5.25       0.00       0.00       0.00       3.40       1.85       5.25        0.01    23.02   1.000
  1722-sub                   5.25       0.00       0.00       0.00       2.13       3.12       5.25        0.00     7.67   1.000
  1721-sub                   5.25       0.00       0.00       0.00       3.82       1.43       5.25        0.00     7.67   1.000
  1724-sub                   5.25       0.00       0.00       0.00       3.15       2.10       5.25        0.00     7.67   1.000
  1942-sub                   5.25       0.00       0.00       0.00       2.79       2.46       5.25        0.00     7.67   1.000
  1949-sub                   5.25       0.00       0.00       0.00       4.22       1.03       5.25        0.00     7.67   1.000
  1951-sub                   5.25       0.00       0.00       0.00       4.09       1.16       5.25        0.00     7.67   1.000
  1888-sub                   5.25       0.00       0.00       0.00       2.01       3.24       5.25        0.00     7.67   1.000
  1805-sub                   5.25       0.00       0.00       0.00       2.30       2.95       5.25        0.01    15.35   1.000
  1865-sub                   5.25       0.00       0.00       0.00       3.52       1.73       5.25        0.00     7.67   1.000
  1968-sub                   5.25       0.00       0.00       0.00       3.93       1.32       5.25        0.00     7.67   1.000
  1289-sub                   5.25       0.00       0.00       0.00       3.36       1.89       5.25        0.00     7.67   1.000
  1288-sub                   5.25       0.00       0.00       0.00       3.32       1.93       5.25        0.00     7.67   1.000
  1295-sub                   5.25       0.00       0.00       0.00       3.89       1.36       5.25        0.00     7.67   1.000
  1299-sub                   5.25       0.00       0.00       0.00       0.93       4.32       5.25        0.00     7.67   1.000
  3205-sub                   5.25       0.00       0.00       0.00       2.67       2.58       5.25        0.00     7.67   1.000
  123-sub                    5.25       0.00       0.00       0.00       1.11       4.14       5.25        0.00     7.67   1.000
  1207-sub                   5.25       0.00       0.00       0.00       0.91       4.34       5.25        0.02    30.69   1.000
  1193-sub                   5.25       0.00       0.00       0.00       0.33       4.92       5.25        0.02    38.37   1.000
  2168-sub                   5.25       0.00       0.00       0.00       2.43       2.82       5.25        0.01    23.02   1.000
  2026-sub                   5.25       0.00       0.00       0.00       2.87       2.38       5.25        0.01    15.35   1.000
  2-sub                      5.25       0.00       0.00       0.00       1.11       4.14       5.25        0.03    46.04   1.000
  127-sub                    5.25       0.00       0.00       0.00       1.57       3.68       5.25        0.01    15.35   1.000
  3383-sub                   5.25       0.00       0.00       0.00       0.87       4.38       5.25        0.01    15.35   1.000
  2170-sub                   5.25       0.00       0.00       0.00       2.61       2.64       5.25        0.00     7.67   1.000
  2023-sub                   5.25       0.00       0.00       0.00       3.73       1.52       5.25        0.00     7.67   1.000
  1947-sub                   5.25       0.00       0.00       0.00       2.89       2.36       5.25        0.00     7.67   1.000
  1880-sub                   5.25       0.00       0.00       0.00       3.11       2.14       5.25        0.00     7.67   1.000
  1871-sub                   5.25       0.00       0.00       0.00       1.94       3.31       5.25        0.00     7.67   1.000
  1866-sub                   5.25       0.00       0.00       0.00       3.68       1.57       5.25        0.00     7.67   1.000
  1967-sub                   5.25       0.00       0.00       0.00       3.62       1.63       5.25        0.00     7.67   1.000
  1734-sub                   5.25       0.00       0.00       0.00       3.50       1.75       5.25        0.00     7.67   1.000
  1290-sub                   5.25       0.00       0.00       0.00       3.12       2.13       5.25        0.00     7.67   1.000
  3231-sub                   5.25       0.00       0.00       0.00       3.65       1.60       5.25        0.00     7.67   1.000
  1308-sub                   5.25       0.00       0.00       0.00       3.07       2.18       5.25        0.01    23.02   1.000
  3207-sub                   5.25       0.00       0.00       0.00       3.14       2.11       5.25        0.00     7.67   1.000
  3206-sub                   5.25       0.00       0.00       0.00       3.31       1.94       5.25        0.00     7.67   1.000
  1206-sub                   5.25       0.00       0.00       0.00       1.50       3.75       5.25        0.01    15.35   1.000
  1099-sub                   5.25       0.00       0.00       0.00       0.00       5.25       5.25        0.00     7.67   1.000
  1136-sub                   5.25       0.00       0.00       0.00       0.15       5.10       5.25        0.01    15.35   1.000
  1230-sub                   5.25       0.00       0.00       0.00       0.91       4.34       5.25        0.00     7.67   1.000
  1229-sub                   5.25       0.00       0.00       0.00       0.80       4.45       5.25        0.00     7.67   1.000
  1262-sub                   5.25       0.00       0.00       0.00       2.30       2.95       5.25        0.00     7.67   1.000
  1266-sub                   5.25       0.00       0.00       0.00       0.47       4.78       5.25        0.00     7.67   1.000
  1275-sub                   5.25       0.00       0.00       0.00       1.43       3.82       5.25        0.00     7.67   1.000
  129-sub                    5.25       0.00       0.00       0.00       2.57       2.68       5.25        0.00     7.67   1.000
  130-sub                    5.25       0.00       0.00       0.00       2.54       2.71       5.25        0.00     7.67   1.000
  1939-sub                   5.25       0.00       0.00       0.00       2.70       2.55       5.25        0.05    84.41   1.000
  3196-sub                   5.25       0.00       0.00       0.00       2.68       2.57       5.25        0.04    61.39   1.000
  2169-sub                   5.25       0.00       0.00       0.00       2.38       2.87       5.25        0.02    38.37   1.000
  2062-sub                   5.25       0.00       0.00       0.00       2.67       2.58       5.25        0.01    23.02   1.000
  1860-sub                   5.25       0.00       0.00       0.00       2.53       2.72       5.25        0.01    15.35   1.000
  1291-sub                   5.25       0.00       0.00       0.00       3.04       2.21       5.25        0.02    38.37   1.000
  1170-sub                   5.25       0.00       0.00       0.00       2.63       2.62       5.25        0.01    23.02   1.000
  1261-sub                   5.25       0.00       0.00       0.00       1.17       4.08       5.25        0.01    15.35   1.000
  2178-sub                   5.25       0.00       0.00       0.00       2.47       2.78       5.25        0.00     7.67   1.000
  2067-sub                   5.25       0.00       0.00       0.00       1.27       3.98       5.25        0.00     7.67   1.000
  2068-sub                   5.25       0.00       0.00       0.00       1.18       4.07       5.25        0.00     7.67   1.000
  2033-sub                   5.25       0.00       0.00       0.00       2.01       3.24       5.25        0.00     7.67   1.000
  2049-sub                   5.25       0.00       0.00       0.00       2.89       2.36       5.25        0.00     7.67   1.000
  1945-sub                   5.25       0.00       0.00       0.00       3.78       1.47       5.25        0.00     7.67   1.000
  2040-sub                   5.25       0.00       0.00       0.00       2.64       2.61       5.25        0.01    23.02   1.000
  1803-sub                   5.25       0.00       0.00       0.00       2.94       2.31       5.25        0.00     7.67   1.000
  1868-sub                   5.25       0.00       0.00       0.00       2.54       2.71       5.25        0.00     7.67   1.000
  1963-sub                   5.25       0.00       0.00       0.00       3.91       1.34       5.25        0.00     7.67   1.000
  1962-sub                   5.25       0.00       0.00       0.00       4.29       0.96       5.25        0.00     7.67   1.000
  3346-sub                   5.25       0.00       0.00       0.00       2.39       2.86       5.25        0.00     7.67   1.000
  3208-sub                   5.25       0.00       0.00       0.00       4.21       1.04       5.25        0.00     7.67   1.000
  1-sub                      5.25       0.00       0.00       0.00       1.48       3.77       5.25        0.00     7.67   1.000
  1201-sub                   5.25       0.00       0.00       0.00       1.08       4.17       5.25        0.02    30.69   1.000
  1137-sub                   5.25       0.00       0.00       0.00       0.00       5.25       5.25        0.00     7.67   1.000
  1264-sub                   5.25       0.00       0.00       0.00       1.82       3.43       5.25        0.00     7.67   1.000
  1240-sub                   5.25       0.00       0.00       0.00       1.36       3.89       5.25        0.00     7.67   1.000
  101-sub                    5.25       0.00       0.00       0.00       4.10       1.15       5.25        0.00     7.67   1.000
  102-sub                    5.25       0.00       0.00       0.00       3.05       2.20       5.25        0.00     7.67   1.000
  103-sub                    5.25       0.00       0.00       0.00       1.76       3.49       5.25        0.00     7.67   1.000
  116-sub                    5.25       0.00       0.00       0.00       5.22       0.03       5.25        0.00     7.67   1.000
  2044-sub                   5.25       0.00       0.00       0.00       2.88       2.37       5.25        0.01    23.02   1.000
  2036-sub                   5.25       0.00       0.00       0.00       2.67       2.58       5.25        0.01    23.02   1.000
  1952-sub                   5.25       0.00       0.00       0.00       2.43       2.82       5.25        0.01    23.02   1.000
  1738-sub                   5.25       0.00       0.00       0.00       2.73       2.52       5.25        0.01    23.02   1.000
  1306-sub                   5.25       0.00       0.00       0.00       2.91       2.34       5.25        0.02    38.37   1.000
  1235-sub                   5.25       0.00       0.00       0.00       0.99       4.26       5.25        0.02    30.69   1.000
  1228-sub                   5.25       0.00       0.00       0.00       0.03       5.22       5.25        0.01    23.02   1.000
  1199-sub                   5.25       0.00       0.00       0.00       0.99       4.26       5.25        0.04    69.06   1.000
  2032-sub                   5.25       0.00       0.00       0.00       1.19       4.06       5.25        0.00     7.67   1.000
  2058-sub                   5.25       0.00       0.00       0.00       3.78       1.47       5.25        0.00     7.67   1.000
  2050-sub                   5.25       0.00       0.00       0.00       3.69       1.56       5.25        0.00     7.67   1.000
  1852-sub                   5.25       0.00       0.00       0.00       2.59       2.66       5.25        0.01    15.35   1.000
  1956-sub                   5.25       0.00       0.00       0.00       2.13       3.12       5.25        0.00     7.67   1.000
  1292-sub                   5.25       0.00       0.00       0.00       3.41       1.84       5.25        0.00     7.67   1.000
  3278-sub                   5.25       0.00       0.00       0.00       3.46       1.79       5.25        0.00     7.67   1.000
  1171-sub                   5.25       0.00       0.00       0.00       2.57       2.68       5.25        0.01    15.35   1.000
  1141-sub                   5.25       0.00       0.00       0.00       0.52       4.73       5.25        0.00     7.67   1.000
  1103-sub                   5.25       0.00       0.00       0.00       1.24       4.01       5.25        0.00     7.67   1.000
  1100-sub                   5.25       0.00       0.00       0.00       0.72       4.53       5.25        0.00     7.67   1.000
  1140-sub                   5.25       0.00       0.00       0.00       0.00       5.25       5.25        0.00     7.67   1.000
  1241-sub                   5.25       0.00       0.00       0.00       0.26       4.99       5.25        0.01    15.35   1.000
  84-sub                     5.25       0.00       0.00       0.00       5.14       0.11       5.25        0.00     7.67   1.000
  227-sub                    5.25       0.00       0.00       0.00       2.33       2.92       5.25        0.00     7.67   1.000
  2051-sub                   5.25       0.00       0.00       0.00       2.98       2.27       5.25        0.03    46.04   1.000
  1946-sub                   5.25       0.00       0.00       0.00       2.85       2.40       5.25        0.05    76.74   1.000
  3280-sub                   5.25       0.00       0.00       0.00       2.48       2.77       5.25        0.03    46.04   1.000
  3209-sub                   5.25       0.00       0.00       0.00       2.70       2.55       5.25        0.02    38.37   1.000
  1259-sub                   5.25       0.00       0.00       0.00       1.77       3.48       5.25        0.02    30.69   1.000
  1820-sub                   5.25       0.00       0.00       0.00       2.79       2.46       5.25        0.01    15.35   1.000
  1899-sub                   5.25       0.00       0.00       0.00       2.66       2.59       5.25        0.02    38.37   1.000
  1811-sub                   5.25       0.00       0.00       0.00       2.78       2.47       5.25        0.01    15.35   1.000
  1959-sub                   5.25       0.00       0.00       0.00       2.57       2.68       5.25        0.01    23.02   1.000
  1305-sub                   5.25       0.00       0.00       0.00       2.67       2.58       5.25        0.01    15.35   1.000
  1226-sub                   5.25       0.00       0.00       0.00       1.29       3.96       5.25        0.01    15.35   1.000
  1258-sub                   5.25       0.00       0.00       0.00       0.79       4.46       5.25        0.01    15.35   1.000
  3381-sub                   5.25       0.00       0.00       0.00       2.20       3.05       5.25        0.00     7.67   1.000
  1903-sub                   5.25       0.00       0.00       0.00       3.65       1.60       5.25        0.00     7.67   1.000
  2037-sub                   5.25       0.00       0.00       0.00       3.29       1.96       5.25        0.00     7.67   1.000
  2055-sub                   5.25       0.00       0.00       0.00       3.54       1.71       5.25        0.01    15.35   1.000
  1853-sub                   5.25       0.00       0.00       0.00       3.20       2.05       5.25        0.00     7.67   1.000
  1976-sub                   5.25       0.00       0.00       0.00       3.28       1.97       5.25        0.00     7.67   1.000
  1970-sub                   5.25       0.00       0.00       0.00       3.75       1.50       5.25        0.00     7.67   1.000
  1304-sub                   5.25       0.00       0.00       0.00       3.61       1.64       5.25        0.00     7.67   1.000
  1167-sub                   5.25       0.00       0.00       0.00       2.78       2.47       5.25        0.00     7.67   1.000
  1168-sub                   5.25       0.00       0.00       0.00       3.22       2.03       5.25        0.00     7.67   1.000
  1225-sub                   5.25       0.00       0.00       0.00       1.24       4.01       5.25        0.00     7.67   1.000
  1267-sub                   5.25       0.00       0.00       0.00       1.14       4.11       5.25        0.00     7.67   1.000
  1268-sub                   5.25       0.00       0.00       0.00       0.19       5.06       5.25        0.00     7.67   1.000
  1139-sub                   5.25       0.00       0.00       0.00       0.18       5.07       5.25        0.00     7.67   1.000
  1280-sub                   5.25       0.00       0.00       0.00       3.60       1.65       5.25        0.00     7.67   1.000
  4-sub                      5.25       0.00       0.00       0.00       1.95       3.30       5.25        0.03    46.04   1.000
  2045-sub                   5.25       0.00       0.00       0.00       3.34       1.91       5.25        0.03    53.71   1.000
  2053-sub                   5.25       0.00       0.00       0.00       3.33       1.92       5.25        0.01    15.35   1.000
  1771-sub                   5.25       0.00       0.00       0.00       2.81       2.44       5.25        0.01    15.35   1.000
  1766-sub                   5.25       0.00       0.00       0.00       3.02       2.23       5.25        0.01    15.35   1.000
  3321-sub                   5.25       0.00       0.00       0.00       3.26       1.99       5.25        0.01    23.02   1.000
  1172-sub                   5.25       0.00       0.00       0.00       1.93       3.32       5.25        0.01    15.35   1.000
  1227-sub                   5.25       0.00       0.00       0.00       0.98       4.27       5.25        0.01    15.35   1.000
  1179-sub                   5.25       0.00       0.00       0.00       0.27       4.98       5.25        0.02    30.69   1.000
  88-sub                     5.25       0.00       0.00       0.00       2.65       2.60       5.25        0.01    15.35   1.000
  87-sub                     5.25       0.00       0.00       0.00       3.88       1.37       5.25        0.01    23.02   1.000
  3149-sub                   5.25       0.00       0.00       0.00       3.04       2.21       5.25        0.00     7.67   1.000
  1904-sub                   5.25       0.00       0.00       0.00       3.61       1.64       5.25        0.00     7.67   1.000
  2035-sub                   5.25       0.00       0.00       0.00       3.49       1.76       5.25        0.00     7.67   1.000
  2034-sub                   5.25       0.00       0.00       0.00       3.63       1.62       5.25        0.00     7.67   1.000
  2027-sub                   5.25       0.00       0.00       0.00       3.39       1.86       5.25        0.00     7.67   1.000
  1900-sub                   5.25       0.00       0.00       0.00       2.91       2.34       5.25        0.01    23.02   1.000
  1851-sub                   5.25       0.00       0.00       0.00       2.60       2.65       5.25        0.00     7.67   1.000
  1770-sub                   5.25       0.00       0.00       0.00       3.43       1.82       5.25        0.00     7.67   1.000
  1958-sub                   5.25       0.00       0.00       0.00       1.84       3.41       5.25        0.00     7.67   1.000
  1973-sub                   5.25       0.00       0.00       0.00       3.14       2.11       5.25        0.00     7.67   1.000
  3323-sub                   5.25       0.00       0.00       0.00       2.22       3.03       5.25        0.00     7.67   1.000
  1302-sub                   5.25       0.00       0.00       0.00       2.39       2.86       5.25        0.00     7.67   1.000
  1303-sub                   5.25       0.00       0.00       0.00       2.31       2.94       5.25        0.00     7.67   1.000
  1314-sub                   5.25       0.00       0.00       0.00       0.65       4.60       5.25        0.00     7.67   1.000
  1178-sub                   5.25       0.00       0.00       0.00       0.00       5.25       5.25        0.00     7.67   1.000
  1238-sub                   5.25       0.00       0.00       0.00       0.00       5.25       5.25        0.00     7.67   1.000
  1284-sub                   5.25       0.00       0.00       0.00       1.44       3.81       5.25        0.14   237.88   1.000
  1768-sub                   5.25       0.00       0.00       0.00       3.27       1.98       5.25        0.02    30.69   1.000
  1972-sub                   5.25       0.00       0.00       0.00       2.92       2.33       5.25        0.01    23.02   1.000
  1821-sub                   5.25       0.00       0.00       0.00       3.21       2.04       5.25        0.01    23.02   1.000
  2008-sub                   5.25       0.00       0.00       0.00       3.16       2.09       5.25        0.02    30.69   1.000
  1957-sub                   5.25       0.00       0.00       0.00       2.38       2.87       5.25        0.01    15.35   1.000
  3294-sub                   5.25       0.00       0.00       0.00       2.81       2.44       5.25        0.02    38.37   1.000
  1440-sub                   5.25       0.00       0.00       0.00       2.30       2.95       5.25        0.02    38.37   1.000
  1274-sub                   5.25       0.00       0.00       0.00       2.12       3.13       5.25        0.01    23.02   1.000
  1279-sub                   5.25       0.00       0.00       0.00       0.61       4.64       5.25        0.01    23.02   1.000
  3187-sub                   5.25       0.00       0.00       0.00       3.39       1.86       5.25        0.01    15.35   1.000
  1828-sub                   5.25       0.00       0.00       0.00       3.75       1.50       5.25        0.00     7.67   1.000
  135-sub                    5.25       0.00       0.00       0.00       3.32       1.93       5.25        0.00     7.67   1.000
  2098-sub                   5.25       0.00       0.00       0.00       3.67       1.58       5.25        0.00     7.67   1.000
  2031-sub                   5.25       0.00       0.00       0.00       3.20       2.05       5.25        0.00     7.67   1.000
  2029-sub                   5.25       0.00       0.00       0.00       1.87       3.38       5.25        0.00     7.67   1.000
  2028-sub                   5.25       0.00       0.00       0.00       2.19       3.06       5.25        0.00     7.67   1.000
  2009-sub                   5.25       0.00       0.00       0.00       3.12       2.13       5.25        0.00     7.67   1.000
  1896-sub                   5.25       0.00       0.00       0.00       2.95       2.30       5.25        0.01    23.02   1.000
  1901-sub                   5.25       0.00       0.00       0.00       2.24       3.01       5.25        0.00     7.67   1.000
  2015-sub                   5.25       0.00       0.00       0.00       2.74       2.51       5.25        0.00     7.67   1.000
  1971-sub                   5.25       0.00       0.00       0.00       3.07       2.18       5.25        0.00     7.67   1.000
  1387-sub                   5.25       0.00       0.00       0.00       2.27       2.98       5.25        0.00     7.67   1.000
  1395-sub                   5.25       0.00       0.00       0.00       3.73       1.52       5.25        0.00     7.67   1.000
  1313-sub                   5.25       0.00       0.00       0.00       3.00       2.25       5.25        0.00     7.67   1.000
  1270-sub                   5.25       0.00       0.00       0.00       1.34       3.91       5.25        0.01    15.35   1.000
  1095-sub                   5.25       0.00       0.00       0.00       0.61       4.64       5.25        0.00     7.67   1.000
  1091-sub                   5.25       0.00       0.00       0.00       1.00       4.25       5.25        0.00     7.67   1.000
  1090-sub                   5.25       0.00       0.00       0.00       1.35       3.90       5.25        0.00     7.67   1.000
  1086-sub                   5.25       0.00       0.00       0.00       0.13       5.12       5.25        0.00     7.67   1.000
  1278-sub                   5.25       0.00       0.00       0.00       0.00       5.25       5.25        0.00     7.67   1.000
  1823-sub                   5.25       0.00       0.00       0.00       2.73       2.52       5.25        0.02    38.37   1.000
  1081-sub                   5.25       0.00       0.00       0.00       0.74       4.51       5.25        0.03    46.04   1.000
  1096-sub                   5.25       0.00       0.00       0.00       0.95       4.30       5.25        0.03    53.71   1.000
  2010-sub                   5.25       0.00       0.00       0.00       2.45       2.80       5.25        0.01    15.35   1.000
  2019-sub                   5.25       0.00       0.00       0.00       2.63       2.62       5.25        0.02    30.69   1.000
  3334-sub                   5.25       0.00       0.00       0.00       3.43       1.82       5.25        0.01    15.35   1.000
  1385-sub                   5.25       0.00       0.00       0.00       2.05       3.20       5.25        0.01    15.35   1.000
  1392-sub                   5.25       0.00       0.00       0.00       3.26       1.99       5.25        0.01    15.35   1.000
  1347-sub                   5.25       0.00       0.00       0.00       2.78       2.47       5.25        0.01    23.02   1.000
  1752-sub                   5.25       0.00       0.00       0.00       2.98       2.27       5.25        0.01    15.35   1.000
  1753-sub                   5.25       0.00       0.00       0.00       3.14       2.11       5.25        0.00     7.67   1.000
  1978-sub                   5.25       0.00       0.00       0.00       1.74       3.51       5.25        0.01    15.35   1.000
  1996-sub                   5.25       0.00       0.00       0.00       2.53       2.72       5.25        0.01    15.35   1.000
  2001-sub                   5.25       0.00       0.00       0.00       3.03       2.22       5.25        0.00     7.67   1.000
  1999-sub                   5.25       0.00       0.00       0.00       4.03       1.22       5.25        0.00     7.67   1.000
  1998-sub                   5.25       0.00       0.00       0.00       2.80       2.45       5.25        0.00     7.67   1.000
  3233-sub                   5.25       0.00       0.00       0.00       3.68       1.57       5.25        0.01    15.35   1.000
  1386-sub                   5.25       0.00       0.00       0.00       2.14       3.11       5.25        0.00     7.67   1.000
  1393-sub                   5.25       0.00       0.00       0.00       2.06       3.19       5.25        0.00     7.67   1.000
  1444-sub                   5.25       0.00       0.00       0.00       2.58       2.67       5.25        0.01    15.35   1.000
  1345-sub                   5.25       0.00       0.00       0.00       3.03       2.22       5.25        0.00     7.67   1.000
  1162-sub                   5.25       0.00       0.00       0.00       1.94       3.31       5.25        0.01    15.35   1.000
  1163-sub                   5.25       0.00       0.00       0.00       1.45       3.80       5.25        0.00     7.67   1.000
  1092-sub                   5.25       0.00       0.00       0.00       0.00       5.25       5.25        0.00     7.67   1.000
  1087-sub                   5.25       0.00       0.00       0.00       1.51       3.74       5.25        0.00     7.67   1.000
  1285-sub                   5.25       0.00       0.00       0.00       0.00       5.25       5.25        0.00     7.67   1.000
  2046-sub                   5.25       0.00       0.00       0.00       2.61       2.64       5.25        0.05    76.74   1.000
  1902-sub                   5.25       0.00       0.00       0.00       2.80       2.45       5.25        0.01    23.02   1.000
  2162-sub                   5.25       0.00       0.00       0.00       3.40       1.85       5.25        0.01    23.02   1.000
  1908-sub                   5.25       0.00       0.00       0.00       2.70       2.55       5.25        0.03    46.04   1.000
  1927-sub                   5.25       0.00       0.00       0.00       3.30       1.95       5.25        0.01    15.35   1.000
  1929-sub                   5.25       0.00       0.00       0.00       2.88       2.37       5.25        0.02    38.37   1.000
  1310-sub                   5.25       0.00       0.00       0.00       2.07       3.18       5.25        0.01    23.02   1.000
  1269-sub                   5.25       0.00       0.00       0.00       0.54       4.71       5.25        0.01    15.35   1.000
  1286-sub                   5.25       0.00       0.00       0.00       1.74       3.51       5.25        0.03    46.04   1.000
  1038-sub                   5.25       0.00       0.00       0.00       2.26       2.99       5.25        0.01    23.02   1.000
  3188-sub                   5.25       0.00       0.00       0.00       3.49       1.76       5.25        0.01    23.02   1.000
  3147-sub                   5.25       0.00       0.00       0.00       3.14       2.11       5.25        0.00     7.67   1.000
  2097-sub                   5.25       0.00       0.00       0.00       2.59       2.66       5.25        0.01    15.35   1.000
  1907-sub                   5.25       0.00       0.00       0.00       3.24       2.01       5.25        0.00     7.67   1.000
  1906-sub                   5.25       0.00       0.00       0.00       3.74       1.51       5.25        0.00     7.67   1.000
  1977-sub                   5.25       0.00       0.00       0.00       3.20       2.05       5.25        0.00     7.67   1.000
  1988-sub                   5.25       0.00       0.00       0.00       2.72       2.53       5.25        0.00     7.67   1.000
  2000-sub                   5.25       0.00       0.00       0.00       2.37       2.88       5.25        0.00     7.67   1.000
  2020-sub                   5.25       0.00       0.00       0.00       3.18       2.07       5.25        0.00     7.67   1.000
  1421-sub                   5.25       0.00       0.00       0.00       2.94       2.31       5.25        0.00     7.67   1.000
  1382-sub                   5.25       0.00       0.00       0.00       2.71       2.54       5.25        0.00     7.67   1.000
  1391-sub                   5.25       0.00       0.00       0.00       3.45       1.80       5.25        0.00     7.67   1.000
  1445-sub                   5.25       0.00       0.00       0.00       1.43       3.82       5.25        0.01    15.35   1.000
  1311-sub                   5.25       0.00       0.00       0.00       4.07       1.18       5.25        0.00     7.67   1.000
  1161-sub                   5.25       0.00       0.00       0.00       2.71       2.54       5.25        0.00     7.67   1.000
  1117-sub                   5.25       0.00       0.00       0.00       0.44       4.81       5.25        0.00     7.67   1.000
  1080-sub                   5.25       0.00       0.00       0.00       0.79       4.46       5.25        0.00     7.67   1.000
  1143-sub                   5.25       0.00       0.00       0.00       0.01       5.24       5.25        0.01    15.35   1.000
  1145-sub                   5.25       0.00       0.00       0.00       0.29       4.96       5.25        0.00     7.67   1.000
  1146-sub                   5.25       0.00       0.00       0.00       0.11       5.14       5.25        0.00     7.67   1.000
  1088-sub                   5.25       0.00       0.00       0.00       0.45       4.80       5.25        0.00     7.67   1.000
  3266-sub                   5.25       0.00       0.00       0.00       2.24       3.01       5.25        0.01    15.35   1.000
  1253-sub                   5.25       0.00       0.00       0.00       0.89       4.36       5.25        0.10   168.82   1.000
  1758-sub                   5.25       0.00       0.00       0.00       1.66       3.59       5.25        0.01    23.02   1.000
  1928-sub                   5.25       0.00       0.00       0.00       2.63       2.62       5.25        0.01    15.35   1.000
  2017-sub                   5.25       0.00       0.00       0.00       3.28       1.97       5.25        0.01    15.35   1.000
  1759-sub                   5.25       0.00       0.00       0.00       3.29       1.96       5.25        0.01    15.35   1.000
  3234-sub                   5.25       0.00       0.00       0.00       3.86       1.39       5.25        0.01    15.35   1.000
  3324-sub                   5.25       0.00       0.00       0.00       1.94       3.31       5.25        0.02    30.69   1.000
  3325-sub                   5.25       0.00       0.00       0.00       3.25       2.00       5.25        0.01    15.35   1.000
  3181-sub                   5.25       0.00       0.00       0.00       3.30       1.95       5.25        0.01    15.35   1.000
  3148-sub                   5.25       0.00       0.00       0.00       3.58       1.67       5.25        0.00     7.67   1.000
  1756-sub                   5.25       0.00       0.00       0.00       2.24       3.01       5.25        0.00     7.67   1.000
  2087-sub                   5.25       0.00       0.00       0.00       3.27       1.98       5.25        0.00     7.67   1.000
  2107-sub                   5.25       0.00       0.00       0.00       1.90       3.35       5.25        0.00     7.67   1.000
  1843-sub                   5.25       0.00       0.00       0.00       3.03       2.22       5.25        0.00     7.67   1.000
  1933-sub                   5.25       0.00       0.00       0.00       2.22       3.03       5.25        0.01    15.35   1.000
  2006-sub                   5.25       0.00       0.00       0.00       2.63       2.62       5.25        0.00     7.67   1.000
  1426-sub                   5.25       0.00       0.00       0.00       3.07       2.18       5.25        0.00     7.67   1.000
  1446-sub                   5.25       0.00       0.00       0.00       1.86       3.39       5.25        0.01    15.35   1.000
  1116-sub                   5.25       0.00       0.00       0.00       0.43       4.82       5.25        0.00     7.67   1.000
  1079-sub                   5.25       0.00       0.00       0.00       0.73       4.52       5.25        0.00     7.67   1.000
  1135-sub                   5.25       0.00       0.00       0.00       0.20       5.05       5.25        0.00     7.67   1.000
  1107-sub                   5.25       0.00       0.00       0.00       0.13       5.12       5.25        0.01    15.35   1.000
  1024-sub                   5.25       0.00       0.00       0.00       3.31       1.94       5.25        0.00     7.67   1.000
  89-sub                     5.25       0.00       0.00       0.00       0.60       4.65       5.25        0.15   245.55   1.000
  1986-sub                   5.25       0.00       0.00       0.00       2.44       2.81       5.25        0.03    46.04   1.000
  1985-sub                   5.25       0.00       0.00       0.00       2.87       2.38       5.25        0.01    23.02   1.000
  139-sub                    5.25       0.00       0.00       0.00       1.75       3.50       5.25        0.01    15.35   1.000
  2088-sub                   5.25       0.00       0.00       0.00       2.27       2.98       5.25        0.01    23.02   1.000
  3337-sub                   5.25       0.00       0.00       0.00       1.77       3.48       5.25        0.01    23.02   1.000
  1190-sub                   5.25       0.00       0.00       0.00       2.45       2.80       5.25        0.01    15.35   1.000
  1147-sub                   5.25       0.00       0.00       0.00       1.43       3.82       5.25        0.02    30.69   1.000
  1036-sub                   5.25       0.00       0.00       0.00       3.55       1.70       5.25        0.01    23.02   1.000
  1039-sub                   5.25       0.00       0.00       0.00       2.58       2.67       5.25        0.01    23.02   1.000
  137-sub                    5.25       0.00       0.00       0.00       3.42       1.83       5.25        0.00     7.67   1.000
  1757-sub                   5.25       0.00       0.00       0.00       1.57       3.68       5.25        0.00     7.67   1.000
  1844-sub                   5.25       0.00       0.00       0.00       2.16       3.09       5.25        0.00     7.67   1.000
  1937-sub                   5.25       0.00       0.00       0.00       2.57       2.68       5.25        0.00     7.67   1.000
  1934-sub                   5.25       0.00       0.00       0.00       3.31       1.94       5.25        0.00     7.67   1.000
  2007-sub                   5.25       0.00       0.00       0.00       3.83       1.42       5.25        0.00     7.67   1.000
  3345-sub                   5.25       0.00       0.00       0.00       4.04       1.21       5.25        0.00     7.67   1.000
  1793-sub                   5.25       0.00       0.00       0.00       3.52       1.73       5.25        0.00     7.67   1.000
  1416-sub                   5.25       0.00       0.00       0.00       2.69       2.56       5.25        0.01    15.35   1.000
  1422-sub                   5.25       0.00       0.00       0.00       2.97       2.28       5.25        0.01    15.35   1.000
  1423-sub                   5.25       0.00       0.00       0.00       2.91       2.34       5.25        0.00     7.67   1.000
  3338-sub                   5.25       0.00       0.00       0.00       2.98       2.27       5.25        0.00     7.67   1.000
  1187-sub                   5.25       0.00       0.00       0.00       3.31       1.94       5.25        0.00     7.67   1.000
  1189-sub                   5.25       0.00       0.00       0.00       2.34       2.91       5.25        0.00     7.67   1.000
  1191-sub                   5.25       0.00       0.00       0.00       0.95       4.30       5.25        0.00     7.67   1.000
  1212-sub                   5.25       0.00       0.00       0.00       2.10       3.15       5.25        0.00     7.67   1.000
  1108-sub                   5.25       0.00       0.00       0.00       0.97       4.28       5.25        0.00     7.67   1.000
  1110-sub                   5.25       0.00       0.00       0.00       2.86       2.39       5.25        0.00     7.67   1.000
  3182-sub                   5.25       0.00       0.00       0.00       2.42       2.83       5.25        0.01    23.02   1.000
  1417-sub                   5.25       0.00       0.00       0.00       1.82       3.43       5.25        0.03    46.04   1.000
  1122-sub                   5.25       0.00       0.00       0.00       0.71       4.54       5.25        0.05    76.74   1.000
  2106-sub                   5.25       0.00       0.00       0.00       2.23       3.02       5.25        0.02    30.69   1.000
  1375-sub                   5.25       0.00       0.00       0.00       2.46       2.79       5.25        0.02    30.69   1.000
  1380-sub                   5.25       0.00       0.00       0.00       2.48       2.77       5.25        0.01    23.02   1.000
  1152-sub                   5.25       0.00       0.00       0.00       0.63       4.62       5.25        0.01    15.35   1.000
  1121-sub                   5.25       0.00       0.00       0.00       2.64       2.61       5.25        0.01    23.02   1.000
  1105-sub                   5.25       0.00       0.00       0.00       1.34       3.91       5.25        0.01    23.02   1.000
  1214-sub                   5.25       0.00       0.00       0.00       0.47       4.78       5.25        0.02    30.69   1.000
  1023-sub                   5.25       0.00       0.00       0.00       2.22       3.03       5.25        0.01    23.02   1.000
  142-sub                    5.25       0.00       0.00       0.00       3.21       2.04       5.25        0.01    15.35   1.000
  2095-sub                   5.25       0.00       0.00       0.00       3.03       2.22       5.25        0.00     7.67   1.000
  2089-sub                   5.25       0.00       0.00       0.00       2.30       2.95       5.25        0.00     7.67   1.000
  1845-sub                   5.25       0.00       0.00       0.00       1.90       3.35       5.25        0.00     7.67   1.000
  2014-sub                   5.25       0.00       0.00       0.00       1.96       3.29       5.25        0.01    15.35   1.000
  1798-sub                   5.25       0.00       0.00       0.00       3.72       1.53       5.25        0.00     7.67   1.000
  1799-sub                   5.25       0.00       0.00       0.00       3.97       1.28       5.25        0.00     7.67   1.000
  1801-sub                   5.25       0.00       0.00       0.00       4.24       1.01       5.25        0.00     7.67   1.000
  1874-sub                   5.25       0.00       0.00       0.00       4.44       0.81       5.25        0.00     7.67   1.000
  1875-sub                   5.25       0.00       0.00       0.00       4.04       1.21       5.25        0.00     7.67   1.000
  1760-sub                   5.25       0.00       0.00       0.00       3.46       1.79       5.25        0.00     7.67   1.000
  1344-sub                   5.25       0.00       0.00       0.00       2.49       2.76       5.25        0.00     7.67   1.000
  1151-sub                   5.25       0.00       0.00       0.00       2.37       2.88       5.25        0.01    23.02   1.000
  1126-sub                   5.25       0.00       0.00       0.00       1.12       4.13       5.25        0.00     7.67   1.000
  1128-sub                   5.25       0.00       0.00       0.00       0.70       4.55       5.25        0.00     7.67   1.000
  1129-sub                   5.25       0.00       0.00       0.00       1.14       4.11       5.25        0.00     7.67   1.000
  2096-sub                   5.25       0.00       0.00       0.00       2.33       2.92       5.25        0.05    84.41   1.000
  140-sub                    5.25       0.00       0.00       0.00       3.30       1.95       5.25        0.03    46.04   1.000
  2091-sub                   5.25       0.00       0.00       0.00       2.34       2.91       5.25        0.03    46.04   1.000
  1379-sub                   5.25       0.00       0.00       0.00       1.57       3.68       5.25        0.03    46.04   1.000
  1213-sub                   5.25       0.00       0.00       0.00       1.08       4.17       5.25        0.12   207.19   1.000
  77-sub                     5.25       0.00       0.00       0.00       3.07       2.18       5.25        0.03    53.71   1.000
  2093-sub                   5.25       0.00       0.00       0.00       2.47       2.78       5.25        0.01    23.02   1.000
  138-sub                    5.25       0.00       0.00       0.00       2.83       2.42       5.25        0.01    15.35   1.000
  2105-sub                   5.25       0.00       0.00       0.00       2.45       2.80       5.25        0.01    15.35   1.000
  2086-sub                   5.25       0.00       0.00       0.00       2.64       2.61       5.25        0.01    15.35   1.000
  2109-sub                   5.25       0.00       0.00       0.00       2.04       3.21       5.25        0.01    23.02   1.000
  1320-sub                   5.25       0.00       0.00       0.00       0.99       4.26       5.25        0.01    23.02   1.000
  15-sub                     5.25       0.00       0.00       0.00       1.72       3.53       5.25        0.01    23.02   1.000
  1215-sub                   5.25       0.00       0.00       0.00       0.00       5.25       5.25        0.01    23.02   1.000
  1020-sub                   5.25       0.00       0.00       0.00       3.19       2.06       5.25        0.01    23.02   1.000
  81-sub                     5.25       0.00       0.00       0.00       1.69       3.56       5.25        0.02    30.69   1.000
  83-sub                     5.25       0.00       0.00       0.00       2.21       3.04       5.25        0.01    23.02   1.000
  141-sub                    5.25       0.00       0.00       0.00       3.30       1.95       5.25        0.00     7.67   1.000
  3348-sub                   5.25       0.00       0.00       0.00       2.39       2.86       5.25        0.00     7.67   1.000
  1846-sub                   5.25       0.00       0.00       0.00       2.68       2.57       5.25        0.00     7.67   1.000
  1795-sub                   5.25       0.00       0.00       0.00       3.29       1.96       5.25        0.00     7.67   1.000
  3273-sub                   5.25       0.00       0.00       0.00       3.07       2.18       5.25        0.00     7.67   1.000
  1762-sub                   5.25       0.00       0.00       0.00       4.56       0.69       5.25        0.00     7.67   1.000
  1432-sub                   5.25       0.00       0.00       0.00       2.85       2.40       5.25        0.00     7.67   1.000
  1373-sub                   5.25       0.00       0.00       0.00       3.39       1.86       5.25        0.01    15.35   1.000
  1104-sub                   5.25       0.00       0.00       0.00       0.16       5.09       5.25        0.00     7.67   1.000
  80-sub                     5.25       0.00       0.00       0.00       1.55       3.70       5.25        0.00     7.67   1.000
  2149-sub                   5.25       0.00       0.00       0.00       3.23       2.02       5.25        0.01    15.35   1.000
  2111-sub                   5.25       0.00       0.00       0.00       2.62       2.63       5.25        0.01    23.02   1.000
  1842-sub                   5.25       0.00       0.00       0.00       1.95       3.30       5.25        0.01    15.35   1.000
  1837-sub                   5.25       0.00       0.00       0.00       3.02       2.23       5.25        0.02    38.37   1.000
  1839-sub                   5.25       0.00       0.00       0.00       3.33       1.92       5.25        0.01    23.02   1.000
  1374-sub                   5.25       0.00       0.00       0.00       1.92       3.33       5.25        0.01    23.02   1.000
  1343-sub                   5.25       0.00       0.00       0.00       2.07       3.18       5.25        0.01    23.02   1.000
  1150-sub                   5.25       0.00       0.00       0.00       1.56       3.69       5.25        0.02    30.69   1.000
  1064-sub                   5.25       0.00       0.00       0.00       0.76       4.49       5.25        0.01    15.35   1.000
  1114-sub                   5.25       0.00       0.00       0.00       0.02       5.23       5.25        0.01    15.35   1.000
  1021-sub                   5.25       0.00       0.00       0.00       2.00       3.25       5.25        0.01    15.35   1.000
  95-sub                     5.25       0.00       0.00       0.00       3.46       1.79       5.25        0.01    23.02   1.000
  2101-sub                   5.25       0.00       0.00       0.00       3.44       1.81       5.25        0.00     7.67   1.000
  2102-sub                   5.25       0.00       0.00       0.00       3.29       1.96       5.25        0.00     7.67   1.000
  2083-sub                   5.25       0.00       0.00       0.00       3.37       1.88       5.25        0.01    15.35   1.000
  2085-sub                   5.25       0.00       0.00       0.00       3.42       1.83       5.25        0.01    15.35   1.000
  3349-sub                   5.25       0.00       0.00       0.00       3.82       1.43       5.25        0.00     7.67   1.000
  2090-sub                   5.25       0.00       0.00       0.00       3.63       1.62       5.25        0.00     7.67   1.000
  3351-sub                   5.25       0.00       0.00       0.00       3.14       2.11       5.25        0.00     7.67   1.000
  2110-sub                   5.25       0.00       0.00       0.00       2.51       2.74       5.25        0.00     7.67   1.000
  1841-sub                   5.25       0.00       0.00       0.00       3.89       1.36       5.25        0.00     7.67   1.000
  1838-sub                   5.25       0.00       0.00       0.00       3.31       1.94       5.25        0.00     7.67   1.000
  1790-sub                   5.25       0.00       0.00       0.00       3.82       1.43       5.25        0.00     7.67   1.000
  1764-sub                   5.25       0.00       0.00       0.00       3.63       1.62       5.25        0.00     7.67   1.000
  1763-sub                   5.25       0.00       0.00       0.00       3.29       1.96       5.25        0.00     7.67   1.000
  1765-sub                   5.25       0.00       0.00       0.00       1.47       3.78       5.25        0.00     7.67   1.000
  1780-sub                   5.25       0.00       0.00       0.00       2.29       2.96       5.25        0.00     7.67   1.000
  1321-sub                   5.25       0.00       0.00       0.00       2.72       2.53       5.25        0.00     7.67   1.000
  1433-sub                   5.25       0.00       0.00       0.00       3.25       2.00       5.25        0.00     7.67   1.000
  1342-sub                   5.25       0.00       0.00       0.00       2.29       2.96       5.25        0.00     7.67   1.000
  14-sub                     5.25       0.00       0.00       0.00       1.46       3.79       5.25        0.01    15.35   1.000
  1113-sub                   5.25       0.00       0.00       0.00       0.22       5.03       5.25        0.03    46.04   1.000
  3202-sub                   5.25       0.00       0.00       0.00       3.73       1.52       5.25        0.00     7.67   1.000
  1434-sub                   5.25       0.00       0.00       0.00       2.75       2.50       5.25        0.04    69.06   1.000
  1414-sub                   5.25       0.00       0.00       0.00       2.34       2.91       5.25        0.01    23.02   1.000
  1065-sub                   5.25       0.00       0.00       0.00       1.07       4.18       5.25        0.01    23.02   1.000
  1074-sub                   5.25       0.00       0.00       0.00       0.05       5.20       5.25        0.01    15.35   1.000
  1175-sub                   5.25       0.00       0.00       0.00       0.02       5.23       5.25        0.01    23.02   1.000
  1035-sub                   5.25       0.00       0.00       0.00       3.21       2.04       5.25        0.01    15.35   1.000
  2193-sub                   5.25       0.00       0.00       0.00       3.55       1.70       5.25        0.00     7.67   1.000
  3150-sub                   5.25       0.00       0.00       0.00       3.17       2.08       5.25        0.01    15.35   1.000
  3352-sub                   5.25       0.00       0.00       0.00       2.81       2.44       5.25        0.01    15.35   1.000
  2070-sub                   5.25       0.00       0.00       0.00       3.01       2.24       5.25        0.00     7.67   1.000
  2071-sub                   5.25       0.00       0.00       0.00       3.57       1.68       5.25        0.00     7.67   1.000
  1791-sub                   5.25       0.00       0.00       0.00       3.41       1.84       5.25        0.01    15.35   1.000
  1772-sub                   5.25       0.00       0.00       0.00       2.44       2.81       5.25        0.00     7.67   1.000
  1315-sub                   5.25       0.00       0.00       0.00       2.75       2.50       5.25        0.00     7.67   1.000
  1316-sub                   5.25       0.00       0.00       0.00       2.72       2.53       5.25        0.00     7.67   1.000
  1317-sub                   5.25       0.00       0.00       0.00       3.25       2.00       5.25        0.00     7.67   1.000
  1413-sub                   5.25       0.00       0.00       0.00       2.77       2.48       5.25        0.01    15.35   1.000
  9-sub                      5.25       0.00       0.00       0.00       3.30       1.95       5.25        0.00     7.67   1.000
  13-sub                     5.25       0.00       0.00       0.00       1.43       3.82       5.25        0.00     7.67   1.000
  1149-sub                   5.25       0.00       0.00       0.00       0.62       4.63       5.25        0.01    15.35   1.000
  1173-sub                   5.25       0.00       0.00       0.00       0.00       5.25       5.25        0.01    15.35   1.000
  1174-sub                   5.25       0.00       0.00       0.00       0.00       5.25       5.25        0.00     7.67   1.000
  1761-sub                   5.25       0.00       0.00       0.00       1.50       3.75       5.25        0.05    76.74   1.000
  1364-sub                   5.25       0.00       0.00       0.00       2.37       2.88       5.25        0.02    38.37   1.000
  2135-sub                   5.25       0.00       0.00       0.00       3.18       2.07       5.25        0.02    30.69   1.000
  2077-sub                   5.25       0.00       0.00       0.00       2.72       2.53       5.25        0.01    15.35   1.000
  1713-sub                   5.25       0.00       0.00       0.00       2.90       2.35       5.25        0.02    38.37   1.000
  3327-sub                   5.25       0.00       0.00       0.00       2.61       2.64       5.25        0.02    30.69   1.000
  1792-sub                   5.25       0.00       0.00       0.00       3.04       2.21       5.25        0.01    15.35   1.000
  2022-sub                   5.25       0.00       0.00       0.00       3.18       2.07       5.25        0.01    23.02   1.000
  10-sub                     5.25       0.00       0.00       0.00       3.10       2.15       5.25        0.01    15.35   1.000
  1066-sub                   5.25       0.00       0.00       0.00       1.20       4.05       5.25        0.01    15.35   1.000
  2156-sub                   5.25       0.00       0.00       0.00       2.66       2.59       5.25        0.00     7.67   1.000
  2078-sub                   5.25       0.00       0.00       0.00       3.38       1.87       5.25        0.00     7.67   1.000
  1714-sub                   5.25       0.00       0.00       0.00       2.09       3.16       5.25        0.01    15.35   1.000
  1779-sub                   5.25       0.00       0.00       0.00       2.69       2.56       5.25        0.00     7.67   1.000
  1407-sub                   5.25       0.00       0.00       0.00       1.65       3.60       5.25        0.01    23.02   1.000
  1365-sub                   5.25       0.00       0.00       0.00       3.13       2.12       5.25        0.00     7.67   1.000
  1148-sub                   5.25       0.00       0.00       0.00       0.93       4.32       5.25        0.01    15.35   1.000
  1075-sub                   5.25       0.00       0.00       0.00       0.12       5.13       5.25        0.01    15.35   1.000
  1156-sub                   5.25       0.00       0.00       0.00       0.41       4.84       5.25        0.00     7.67   1.000
  1159-sub                   5.25       0.00       0.00       0.00       0.00       5.25       5.25        0.00     7.67   1.000
  1029-sub                   5.25       0.00       0.00       0.00       3.76       1.49       5.25        0.00     7.67   1.000
  1158-sub                   5.25       0.00       0.00       0.00       0.67       4.58       5.25        0.05    76.74   1.000
  1057-sub                   5.25       0.00       0.00       0.00       1.05       4.20       5.25        0.09   145.80   1.000
  1018-sub                   5.25       0.00       0.00       0.00       1.43       3.82       5.25        0.06   107.43   1.000
  3151-sub                   5.25       0.00       0.00       0.00       2.90       2.35       5.25        0.02    30.69   1.000
  2082-sub                   5.25       0.00       0.00       0.00       2.71       2.54       5.25        0.03    53.71   1.000
  2136-sub                   5.25       0.00       0.00       0.00       2.53       2.72       5.25        0.01    23.02   1.000
  2074-sub                   5.25       0.00       0.00       0.00       2.52       2.73       5.25        0.01    23.02   1.000
  1700-sub                   5.25       0.00       0.00       0.00       3.37       1.88       5.25        0.02    30.69   1.000
  1789-sub                   5.25       0.00       0.00       0.00       2.79       2.46       5.25        0.01    15.35   1.000
  1788-sub                   5.25       0.00       0.00       0.00       2.72       2.53       5.25        0.01    15.35   1.000
  1324-sub                   5.25       0.00       0.00       0.00       3.15       2.10       5.25        0.02    30.69   1.000
  3248-sub                   5.25       0.00       0.00       0.00       3.26       1.99       5.25        0.01    15.35   1.000
  1076-sub                   5.25       0.00       0.00       0.00       0.50       4.75       5.25        0.02    30.69   1.000
  1157-sub                   5.25       0.00       0.00       0.00       0.83       4.42       5.25        0.01    15.35   1.000
  1160-sub                   5.25       0.00       0.00       0.00       2.15       3.10       5.25        0.01    15.35   1.000
  2179-sub                   5.25       0.00       0.00       0.00       2.99       2.26       5.25        0.01    15.35   1.000
  2073-sub                   5.25       0.00       0.00       0.00       3.01       2.24       5.25        0.00     7.67   1.000
  1849-sub                   5.25       0.00       0.00       0.00       3.17       2.08       5.25        0.00     7.67   1.000
  1717-sub                   5.25       0.00       0.00       0.00       3.23       2.02       5.25        0.00     7.67   1.000
  3328-sub                   5.25       0.00       0.00       0.00       3.04       2.21       5.25        0.00     7.67   1.000
  1778-sub                   5.25       0.00       0.00       0.00       2.15       3.10       5.25        0.00     7.67   1.000
  1359-sub                   5.25       0.00       0.00       0.00       3.23       2.02       5.25        0.00     7.67   1.000
  1007-sub                   5.25       0.00       0.00       0.00       0.01       5.24       5.25        0.00     7.67   1.000
  1060-sub                   5.25       0.00       0.00       0.00       0.65       4.60       5.25        0.00     7.67   1.000
  1184-sub                   5.25       0.00       0.00       0.00       0.08       5.17       5.25        0.00     7.67   1.000
  1017-sub                   5.25       0.00       0.00       0.00       1.42       3.83       5.25        0.01    15.35   1.000
  1034-sub                   5.25       0.00       0.00       0.00       1.98       3.27       5.25        0.07   122.78   1.000
  1008-sub                   5.25       0.00       0.00       0.00       2.08       3.17       5.25        0.06    99.76   1.000
  2190-sub                   5.25       0.00       0.00       0.00       2.01       3.24       5.25        0.01    23.02   1.000
  1404-sub                   5.25       0.00       0.00       0.00       2.19       3.06       5.25        0.02    30.69   1.000
  1019-sub                   5.25       0.00       0.00       0.00       1.43       3.82       5.25        0.02    38.37   1.000
  2137-sub                   5.25       0.00       0.00       0.00       2.26       2.99       5.25        0.02    38.37   1.000
  1774-sub                   5.25       0.00       0.00       0.00       2.31       2.94       5.25        0.01    15.35   1.000
  2011-sub                   5.25       0.00       0.00       0.00       1.95       3.30       5.25        0.01    23.02   1.000
  1397-sub                   5.25       0.00       0.00       0.00       3.06       2.19       5.25        0.01    15.35   1.000
  1363-sub                   5.25       0.00       0.00       0.00       3.07       2.18       5.25        0.01    23.02   1.000
  1031-sub                   5.25       0.00       0.00       0.00       3.08       2.17       5.25        0.01    23.02   1.000
  2189-sub                   5.25       0.00       0.00       0.00       1.53       3.72       5.25        0.00     7.67   1.000
  2159-sub                   5.25       0.00       0.00       0.00       2.76       2.49       5.25        0.00     7.67   1.000
  3152-sub                   5.25       0.00       0.00       0.00       2.57       2.68       5.25        0.00     7.67   1.000
  1850-sub                   5.25       0.00       0.00       0.00       2.74       2.51       5.25        0.00     7.67   1.000
  1848-sub                   5.25       0.00       0.00       0.00       3.42       1.83       5.25        0.00     7.67   1.000
  1708-sub                   5.25       0.00       0.00       0.00       3.29       1.96       5.25        0.00     7.67   1.000
  1702-sub                   5.25       0.00       0.00       0.00       3.33       1.92       5.25        0.00     7.67   1.000
  1332-sub                   5.25       0.00       0.00       0.00       2.30       2.95       5.25        0.00     7.67   1.000
  11-sub                     5.25       0.00       0.00       0.00       2.67       2.58       5.25        0.00     7.67   1.000
  6-sub                      5.25       0.00       0.00       0.00       2.67       2.58       5.25        0.00     7.67   1.000
  1045-sub                   5.25       0.00       0.00       0.00       0.41       4.84       5.25        0.00     7.67   1.000
  1067-sub                   5.25       0.00       0.00       0.00       0.00       5.25       5.25        0.00     7.67   1.000
  1131-sub                   5.25       0.00       0.00       0.00       0.00       5.25       5.25        0.00     7.67   1.000
  1155-sub                   5.25       0.00       0.00       0.00       0.88       4.37       5.25        0.01    15.35   1.000
  1705-sub                   5.25       0.00       0.00       0.00       2.35       2.90       5.25        0.01    23.02   1.000
  1703-sub                   5.25       0.00       0.00       0.00       3.44       1.81       5.25        0.02    38.37   1.000
  1058-sub                   5.25       0.00       0.00       0.00       0.66       4.59       5.25        0.03    46.04   1.000
  1041-sub                   5.25       0.00       0.00       0.00       0.13       5.12       5.25        0.01    23.02   1.000
  2072-sub                   5.25       0.00       0.00       0.00       2.37       2.88       5.25        0.02    30.69   1.000
  2148-sub                   5.25       0.00       0.00       0.00       2.40       2.85       5.25        0.01    15.35   1.000
  2080-sub                   5.25       0.00       0.00       0.00       2.15       3.10       5.25        0.02    30.69   1.000
  1704-sub                   5.25       0.00       0.00       0.00       2.68       2.57       5.25        0.01    15.35   1.000
  1707-sub                   5.25       0.00       0.00       0.00       3.35       1.90       5.25        0.01    15.35   1.000
  1350-sub                   5.25       0.00       0.00       0.00       3.22       2.03       5.25        0.02    30.69   1.000
  1398-sub                   5.25       0.00       0.00       0.00       2.35       2.90       5.25        0.01    23.02   1.000
  1362-sub                   5.25       0.00       0.00       0.00       2.08       3.17       5.25        0.01    15.35   1.000
  12-sub                     5.25       0.00       0.00       0.00       2.06       3.19       5.25        0.01    15.35   1.000
  1072-sub                   5.25       0.00       0.00       0.00       0.73       4.52       5.25        0.01    23.02   1.000
  1154-sub                   5.25       0.00       0.00       0.00       0.54       4.71       5.25        0.01    23.02   1.000
  981-sub                    5.25       0.00       0.00       0.00       2.75       2.50       5.25        0.01    23.02   1.000
  3353-sub                   5.25       0.00       0.00       0.00       2.30       2.95       5.25        0.00     7.67   1.000
  2181-sub                   5.25       0.00       0.00       0.00       2.24       3.01       5.25        0.00     7.67   1.000
  2158-sub                   5.25       0.00       0.00       0.00       2.90       2.35       5.25        0.00     7.67   1.000
  2138-sub                   5.25       0.00       0.00       0.00       3.28       1.97       5.25        0.01    15.35   1.000
  2141-sub                   5.25       0.00       0.00       0.00       2.84       2.41       5.25        0.00     7.67   1.000
  1847-sub                   5.25       0.00       0.00       0.00       2.56       2.69       5.25        0.02    38.37   1.000
  1712-sub                   5.25       0.00       0.00       0.00       2.36       2.89       5.25        0.00     7.67   1.000
  1742-sub                   5.25       0.00       0.00       0.00       4.05       1.20       5.25        0.00     7.67   1.000
  1323-sub                   5.25       0.00       0.00       0.00       3.72       1.53       5.25        0.00     7.67   1.000
  1349-sub                   5.25       0.00       0.00       0.00       4.36       0.89       5.25        0.00     7.67   1.000
  1353-sub                   5.25       0.00       0.00       0.00       2.08       3.17       5.25        0.01    15.35   1.000
  1333-sub                   5.25       0.00       0.00       0.00       1.54       3.71       5.25        0.00     7.67   1.000
  1361-sub                   5.25       0.00       0.00       0.00       1.92       3.33       5.25        0.00     7.67   1.000
  8-sub                      5.25       0.00       0.00       0.00       1.29       3.96       5.25        0.00     7.67   1.000
  1046-sub                   5.25       0.00       0.00       0.00       1.56       3.69       5.25        0.00     7.67   1.000
  1056-sub                   5.25       0.00       0.00       0.00       0.00       5.25       5.25        0.00     7.67   1.000
  1055-sub                   5.25       0.00       0.00       0.00       0.00       5.25       5.25        0.00     7.67   1.000
  1032-sub                   5.25       0.00       0.00       0.00       3.02       2.23       5.25        0.00     7.67   1.000
  979-sub                    5.25       0.00       0.00       0.00       2.09       3.16       5.25        0.00     7.67   1.000
  986-sub                    5.25       0.00       0.00       0.00       1.44       3.81       5.25        0.04    61.39   1.000
  985-sub                    5.25       0.00       0.00       0.00       2.07       3.18       5.25        0.02    30.69   1.000
  2012-sub                   5.25       0.00       0.00       0.00       2.91       2.34       5.25        0.02    38.37   1.000
  1360-sub                   5.25       0.00       0.00       0.00       2.52       2.73       5.25        0.01    23.02   1.000
  977-sub                    5.25       0.00       0.00       0.00       2.39       2.86       5.25        0.01    15.35   1.000
  978-sub                    5.25       0.00       0.00       0.00       2.52       2.73       5.25        0.01    15.35   1.000
  2197-sub                   5.25       0.00       0.00       0.00       2.88       2.37       5.25        0.00     7.67   1.000
  1921-sub                   5.25       0.00       0.00       0.00       2.94       2.31       5.25        0.00     7.67   1.000
  2139-sub                   5.25       0.00       0.00       0.00       2.86       2.39       5.25        0.01    15.35   1.000
  2075-sub                   5.25       0.00       0.00       0.00       2.78       2.47       5.25        0.01    15.35   1.000
  2142-sub                   5.25       0.00       0.00       0.00       3.46       1.79       5.25        0.00     7.67   1.000
  2131-sub                   5.25       0.00       0.00       0.00       3.08       2.17       5.25        0.00     7.67   1.000
  2132-sub                   5.25       0.00       0.00       0.00       2.20       3.05       5.25        0.00     7.67   1.000
  1744-sub                   5.25       0.00       0.00       0.00       2.33       2.92       5.25        0.01    23.02   1.000
  1711-sub                   5.25       0.00       0.00       0.00       2.70       2.55       5.25        0.01    15.35   1.000
  1743-sub                   5.25       0.00       0.00       0.00       4.47       0.78       5.25        0.00     7.67   1.000
  2013-sub                   5.25       0.00       0.00       0.00       3.46       1.79       5.25        0.00     7.67   1.000
  1366-sub                   5.25       0.00       0.00       0.00       4.16       1.09       5.25        0.00     7.67   1.000
  1358-sub                   5.25       0.00       0.00       0.00       3.69       1.56       5.25        0.00     7.67   1.000
  1352-sub                   5.25       0.00       0.00       0.00       1.59       3.66       5.25        0.01    23.02   1.000
  1334-sub                   5.25       0.00       0.00       0.00       0.85       4.40       5.25        0.01    15.35   1.000
  7-sub                      5.25       0.00       0.00       0.00       2.38       2.87       5.25        0.01    15.35   1.000
  1044-sub                   5.25       0.00       0.00       0.00       1.01       4.24       5.25        0.00     7.67   1.000
  1052-sub                   5.25       0.00       0.00       0.00       0.23       5.02       5.25        0.01    15.35   1.000
  1051-sub                   5.25       0.00       0.00       0.00       0.55       4.70       5.25        0.00     7.67   1.000
  976-sub                    5.25       0.00       0.00       0.00       2.34       2.91       5.25        0.00     7.67   1.000
  1053-sub                   5.25       0.00       0.00       0.00       0.72       4.53       5.25        0.13   214.86   1.000
  2145-sub                   5.25       0.00       0.00       0.00       2.71       2.54       5.25        0.02    38.37   1.000
  1061-sub                   5.25       0.00       0.00       0.00       0.57       4.68       5.25        0.05    76.74   1.000
  2134-sub                   5.25       0.00       0.00       0.00       2.37       2.88       5.25        0.03    46.04   1.000
  2192-sub                   5.25       0.00       0.00       0.00       3.10       2.15       5.25        0.01    15.35   1.000
  2144-sub                   5.25       0.00       0.00       0.00       2.35       2.90       5.25        0.02    30.69   1.000
  1749-sub                   5.25       0.00       0.00       0.00       1.14       4.11       5.25        0.01    23.02   1.000
  1748-sub                   5.25       0.00       0.00       0.00       2.69       2.56       5.25        0.01    15.35   1.000
  1878-sub                   5.25       0.00       0.00       0.00       3.18       2.07       5.25        0.01    15.35   1.000
  1042-sub                   5.25       0.00       0.00       0.00       0.01       5.24       5.25        0.01    15.35   1.000
  1043-sub                   5.25       0.00       0.00       0.00       0.15       5.10       5.25        0.01    23.02   1.000
  984-sub                    5.25       0.00       0.00       0.00       2.52       2.73       5.25        0.01    23.02   1.000
  1920-sub                   5.25       0.00       0.00       0.00       3.10       2.15       5.25        0.00     7.67   1.000
  2114-sub                   5.25       0.00       0.00       0.00       3.13       2.12       5.25        0.01    15.35   1.000
  2147-sub                   5.25       0.00       0.00       0.00       3.16       2.09       5.25        0.00     7.67   1.000
  1750-sub                   5.25       0.00       0.00       0.00       2.33       2.92       5.25        0.00     7.67   1.000
  1784-sub                   5.25       0.00       0.00       0.00       3.45       1.80       5.25        0.00     7.67   1.000
  1741-sub                   5.25       0.00       0.00       0.00       4.08       1.17       5.25        0.00     7.67   1.000
  1982-sub                   5.25       0.00       0.00       0.00       3.63       1.62       5.25        0.00     7.67   1.000
  1876-sub                   5.25       0.00       0.00       0.00       3.29       1.96       5.25        0.00     7.67   1.000
  1372-sub                   5.25       0.00       0.00       0.00       2.32       2.93       5.25        0.00     7.67   1.000
  1447-sub                   5.25       0.00       0.00       0.00       1.84       3.41       5.25        0.00     7.67   1.000
[...]
  2739-2738                   0.64      0.64      1.16      0.01         0.01
  2740-2745                  23.76     23.76     23.77      0.01         0.01
  2742-2740                  23.74     23.74     23.79      0.01         0.01
  2743-2760                  23.83     23.83     23.86      0.01         0.01
  2744-2743                  23.82     23.82     23.83      1.43         0.01
  2745-2744                  23.80     23.80     23.82      1.21         0.01
  2746-2682                   0.23      0.23     23.85      0.01         0.01
  2747-2748                  23.81     23.81     23.82      0.01         0.01
  2748-2682                  23.83     23.83     23.85      0.17         0.01
  2749-2743                   1.43      1.43     23.83      0.01         0.01
  2750-2749                   0.01      0.01      1.43      0.01         0.01
  2755-2715                   0.18      0.18     23.85      0.01         0.01
  2759-2756                   0.83      0.83     23.77      0.01         0.01
  2760-2759                  23.74     23.74     23.81      0.01         0.01
  2761-2715                   1.27      1.27      1.34      0.01         0.01
  2762-2763                   1.52      1.52     23.85      0.05         0.05
  2763-2715                   0.85      0.85      0.87      0.01         0.01
  2764-2713                  23.82     23.82     23.85      0.01         0.01
  2766-2765                   0.01      0.01      0.15      0.01         0.01
  2768-2762                   1.38      1.39      1.52      0.11         0.10
  2770-2612                   0.13      0.13      0.17      0.01         0.01
  2771-2770                   0.17      0.17      0.22      0.07         0.06
  2773-2776                   0.01      0.01      0.10      0.01         0.01
  2774-2803                   0.26      0.26      0.28      0.01         0.01
  2775-2774                   0.13      0.13      0.28      0.01         0.01
  2779-2773                   0.01      0.01      0.01      0.01         0.01
  2780-2781                   0.37      0.39      0.39      0.19         0.17
  2781-2513                   0.34      0.34      0.36      0.01         0.01
  2784-2774                   0.18      0.18      0.28      0.01         0.01
  2786-2817                  23.76     23.76     23.84      0.01         0.01
  2787-2786                  23.85     23.85     23.85      0.09         0.09
  2789-2780                   0.11      0.11      0.39      0.01         0.01
  2790-2789                   0.09      0.09      0.11      0.01         0.01
  2791-2790                   0.06      0.06      0.09      0.01         0.01
  2793-2688                   0.01      0.01     23.83      0.01         0.01
  2794-2795                   0.10      0.10      0.18      0.07         0.02
  2795-2512                   0.11      0.11      0.53      0.01         0.01
  2798-2512                   0.50      0.50      0.50      0.38         0.37
  2799-2712                   0.22      0.22      0.32      0.01         0.01
  2801-2780                   0.35      0.35      0.39      0.01         0.01
  2803-2811                   0.22      0.30      0.22      0.31         0.22
  2806-2786                   0.01      0.01     23.85      0.01         0.01
  2809-2803                   0.01      0.01      0.30      0.01         0.01
  2811-2463                   0.01      0.01      0.43      0.01         0.01
  2816-2774                   0.01      0.01      0.28      0.01         0.01
  2817-2818                   0.01      0.01      0.21      0.01         0.01
  2822-2672                   0.01      0.01      0.18      0.01         0.01
  2829-2830                   0.20      0.24      0.20      0.26         0.20
  2830-2623                   0.15      0.15      0.49      0.01         0.01
  2832-2623                   0.01      0.01      0.55      0.01         0.01
  2833-2834                   0.33      0.33      0.40      0.01         0.01
  2834-2829                   0.38      0.51      0.41      0.37         0.23
  2835-2617                   0.01      0.01      0.11      0.01         0.01
  2837-2761                   0.07      0.07     23.71      0.01         0.01
  2838-2717                   0.01      0.01      0.09      0.01         0.01
  2839-2853                   0.37      0.38     23.84      0.22         0.20
  2840-2839                   0.11      0.11      0.35      0.01         0.01
  2844-2840                   0.01      0.01      0.16      0.01         0.01
  2853-2896                  23.81     23.81     23.82      0.01         0.01
  2854-2839                   0.30      0.30      0.38      0.18         0.01
  2859-2839                   0.01      0.01      0.38      0.01         0.01
  2863-2833                   0.22      0.22      0.23      0.01         0.02
  2866-2863                   0.01      0.01      0.43      0.01         0.01
  2867-2868                   0.17      0.17      0.33      0.01         0.01
  2868-2863                   0.33      0.33      0.43      0.01         0.01
  2869-2887                   0.01      0.01      0.25      0.01         0.01
  2871-2694                   0.10      0.22      0.10      0.23         0.10
  2872-2871                   0.15      0.15      0.22      0.01         0.01
  2887-2954                   0.17      0.25      0.17      0.26         0.17
  2889-2926                   0.24      0.24      0.27      0.01         0.01
  2890-2762                   0.01      0.01     23.84      0.01         0.01
  2891-2910                   0.30      0.30     23.86      0.16         0.16
  2892-2891                   0.07      0.07      0.30      0.01         0.01
  2893-2894                   0.11      0.11      0.17      0.01         0.01
  2894-2829                   0.17      0.17      0.28      0.01         0.01
  2895-2904                  23.84     23.84     23.84      0.26         0.26
  2896-2895                  23.84     23.84     23.85      0.22         0.22
  2898-2911                   0.16      0.16      0.25      0.01         0.01
  2899-2898                   0.07      0.07      0.16      0.01         0.01
  2901-2895                   0.01      0.01     23.75      0.01         0.01
  2904-2903                  23.80     23.80     23.81      0.01         0.01
  2908-310                    0.01      0.01      0.04      0.01         0.01
  2910-2670                   0.01      0.01     23.84      0.01         0.01
  2911-2891                   0.25      0.25      0.30      0.01         0.01
  2913-2951                   0.12      0.12      0.17      0.01         0.01
  2917-75                     0.01      0.01      0.59      0.01         0.01
  2920-2889                   0.22      0.23      0.24      0.04         0.02
  2921-2920                   0.15      0.15      0.23      0.01         0.01
  2922-2921                   0.01      0.01      0.15      0.01         0.01
  2924-2761                   1.28      1.28     23.86      0.16         0.16
  2926-2924                   0.27      0.27      1.28      0.01         0.01
  2927-2928                  23.74     23.74     23.84      0.01         0.01
  2928-2718                   0.01      0.01     23.73      0.01         0.01
  2929-2911                   0.01      0.01      0.25      0.01         0.01
  2930-2834                   0.01      0.01      0.51      0.01         0.01
  2931-2721                   0.01      0.01      0.57      0.01         0.01
  2932-2841                   0.14      0.19      0.15      0.20         0.14
  2935-2934                   0.01      0.01      0.06      0.01         0.01
  2939-2867                   0.06      0.06      0.17      0.01         0.01
  2943-2833                   0.01      0.01      0.45      0.01         0.01
  2944-2946                   0.36      0.36      0.46      0.01         0.01
  2945-2944                   0.27      0.27      0.41      0.01         0.01
  2946-2947                   0.46      0.46      0.56      0.01         0.01
  2947-2924                   0.64      0.64      1.28      0.01         0.01
  2948-2932                   0.11      0.11      0.19      0.01         0.01
  2951-69                     0.01      0.17      0.01      0.19         0.01
  2952-2898                   0.01      0.01      0.11      0.01         0.01
  2956-2957                   0.29      0.29      0.30      0.29         0.28
  2957-2954                   0.28      0.28      0.30      0.30         0.28
  2959-2965                   0.14      0.14      0.38      0.01         0.01
  2960-2956                   0.21      0.21      0.29      0.01         0.01
  2961-2960                   0.22      0.22      0.23      0.20         0.18
  2962-2529                   0.01      0.01      0.39      0.01         0.01
  2963-2970                  23.81     23.81     23.82      0.01         0.01
  2964-2968                   0.39      0.45      0.41      0.27         0.21
  2965-2966                   0.37      0.38      0.46      0.24         0.22
  2967-2985                   0.45      0.45      0.46      0.43         0.42
  2968-2967                   0.29      0.29      0.36      0.01         0.01
  2970-2969                   0.01      0.01     23.80      0.01         0.01
  2972-2963                   0.01      0.01     23.85      0.01         0.01
  2974-2975                   0.01      0.01      0.01      0.04         0.01
  2975-2976                   0.01      0.01      0.01      0.11         0.01
  2983-2980                  23.82     23.82     23.84      0.01         0.01
  2985-2986                   0.39      0.39      0.47      0.04         0.03
  2986-2983                   0.47      0.47     23.82      0.01         0.01
  2987-2988                   0.01      0.07      0.01      0.14         0.01
  2990-2961                   0.01      0.01      0.22      0.01         0.01
  2992-2961                   0.17      0.17      0.22      0.01         0.01
  2994-2961                   0.01      0.01      0.22      0.01         0.01
  2998-2999                   0.17      0.20      0.17      0.21         0.17
  2999-2987                   0.07      0.07      0.07      0.12         0.07
  3000-2967                   0.01      0.01      0.45      0.01         0.01
  3006-2980                   0.01      0.01     23.85      0.01         0.01
  3008-3009                   0.09      0.09      0.55      0.01         0.01
  3009-3010                   0.55      0.55     23.81      0.01         0.01
  3010-2980                  23.81     23.81     23.85      0.01         0.01
  3017-3008                   0.01      0.01      0.09      0.01         0.01
  3019-3023                   0.01      0.01      0.13      0.01         0.01
  3020-3030                   0.10      0.10      0.14      0.01         0.01
  3025-3026                   0.17      0.19      0.17      0.20         0.17
  3026-2972                   0.01      0.01      0.01      0.10         0.01
  3027-3025                   0.12      0.12      0.19      0.01         0.01
  3028-2965                   0.22      0.22      0.38      0.01         0.01
  3029-3028                   0.17      0.17      0.22      0.01         0.01
  3030-3029                   0.16      0.16      0.17      0.09         0.08
  3033-3020                   0.01      0.01      0.15      0.01         0.01
  3037-2959                   0.01      0.01      0.14      0.01         0.01
  3044-3050                   0.07      0.07      0.15      0.01         0.01
  3045-3044                   0.01      0.01      0.07      0.01         0.01
  3047-2956                   0.24      0.24      0.29      0.01         0.01
  3049-3053                   0.16      0.16      0.20      0.01         0.01
  3050-3049                   0.08      0.08      0.10      0.01         0.01
  3053-2956                   0.20      0.20      0.29      0.01         0.01
  3063-2998                   0.01      0.01      0.20      0.01         0.01
  3064-2992                   0.01      0.01      0.14      0.01         0.01
  3065-2887                   0.17      0.17      0.25      0.01         0.01
  3066-3065                   0.01      0.01      0.17      0.01         0.01
  3086-2580                   0.01      0.01      0.36      0.01         0.01
  3089-1493                  23.86     23.86     23.86      0.11         0.10
  3091-3093                  23.86     23.86     23.86      0.01         0.01
  3093-3089                  23.86     23.86     23.86      0.23         0.04
  3094-3095                   0.01      0.01      0.11      0.01         0.01
  3095-3096                   0.11      0.11      0.17      0.01         0.01
  3096-3098                   0.17      0.17      0.21      0.01         0.01
  3098-3089                   0.21      0.21     23.86      0.01         0.01
  3099-3091                   0.17      0.17     23.86      0.01         0.01
  3109-3091                   0.01      0.01     23.86      0.01         0.01
  3111-3091                   0.01      0.01     23.86      0.01         0.01
  3112-3113                   0.01      0.01      0.13      0.01         0.01
  3113-3116                   0.13      0.13      0.15      0.01         0.01
  3116-3099                   0.15      0.15      0.17      0.01         0.01
  3148-142                    0.01      0.01      0.05      0.01         0.01
  3149-135                    0.50      0.50      0.72      0.01         0.01
  3152-3151                   0.13      0.13      0.76      0.01         0.01
  3158-3159                   0.01      0.01      0.19      0.01         0.01
  3159-1909                   0.08      0.08     23.84      0.01         0.01
  3162-2489                  23.83     23.83     23.85      0.01         0.01
  3163-3164                   0.01      0.01     23.74      0.01         0.01
  3166-3167                   0.01      0.01      0.20      0.01         0.01
  3167-3168                   0.20      0.20      0.24      0.01         0.01
  3168-2962                   0.21      0.24      0.21      0.24         0.21
  3169-2523                   0.31      0.32      0.36      0.17         0.16
  3186-3187                   0.33      0.33      0.35      0.27         0.27
  3187-3188                   0.31      0.35      0.31      0.35         0.31
  3188-3181                   0.01      0.16      0.01      0.19         0.01
  3196-113                    0.06      0.06      0.11      0.11         0.06
  3214-3217                   0.26      0.27      0.28      0.17         0.15
  3215-3214                   0.24      0.24      0.27      0.07         0.01
  3216-3215                   0.22      0.22      0.24      0.16         0.01
  3217-3219                   0.20      0.28      0.20      0.29         0.20
  3218-3214                   0.01      0.01      0.28      0.01         0.01
  3219-31                     0.15      0.15      0.18      0.18         0.15
  3221-3222                   0.20      0.23      0.36      0.14         0.10
  3222-3223                   0.07      0.07      0.09      0.01         0.01
  3223-3224                   0.38      0.38      0.41      0.02         0.01
  3224-945                    0.37      0.37      0.44      0.01         0.01
  3229-1289                   0.17      0.18      0.21      0.07         0.05
  3230-1970                   0.01      0.01      0.08      0.01         0.01
  3231-1289                   0.01      0.01      0.21      0.01         0.01
  3233-3234                   0.37      0.37      0.38      0.01         0.02
  3234-1319                  23.82     23.82     23.84      0.07         0.07
  3236-1429                   0.19      0.19      0.55      0.01         0.01
  3239-1515                   0.12      0.25      0.12      0.26         0.12
  3240-3241                  23.81     23.81     23.82      0.02         0.01
  3241-1533                  23.81     23.81     23.82      0.01         0.01
  3242-61                     0.38      0.38      0.45      0.01         0.01
  3243-1554                   0.35      0.35     23.81      0.01         0.01
  3244-3243                   0.01      0.01      0.35      0.01         0.01
  3248-1350                   0.01      0.01     23.86      0.01         0.01
  3259-3210                   0.01      0.01      0.33      0.01         0.01
  3260-3261                   0.01      0.15      0.01      0.16         0.01
  3261-3217                   0.01      0.01      0.23      0.01         0.01
  3262-3217                   0.01      0.01      0.25      0.01         0.01
  3266-1024                   0.04      0.04     23.85      0.01         0.01
  3271-75                     0.01      0.01      0.59      0.01         0.01
  3273-1762                  23.85     23.85     23.86      0.30         0.30
  3278-3230                   0.15      0.15      0.16      0.16         0.15
  3280-3278                   0.15      0.15      0.16      0.15         0.14
  3283-3281                   0.15      0.18      0.15      0.19         0.15
  3285-3281                   0.01      0.01      0.15      0.01         0.01
  3294-3233                   0.52      0.52     23.84      0.01         0.01
  3295-636                    0.16      0.17      0.18      0.05         0.04
  3297-524                    0.01      0.01     23.78      0.01         0.01
  3298-537                    0.01      0.01     23.84      0.01         0.01
  3300-220                    0.01      0.01      0.13      0.01         0.01
  3308-3309                   0.06      0.06      1.00      0.01         0.01
  3309-1599                   1.00      1.00     23.83      0.01         0.01
  3311-2509                   0.17      0.20      0.17      0.20         0.17
  3313-2509                   0.01      0.01      0.17      0.01         0.01
  3315-2417                   0.01      0.01     23.84      0.01         0.01
  3317-2459                   0.01      0.01     23.85      0.01         0.01
  3323-1301                   0.01      0.01      0.41      0.01         0.01
  3324-1389                   0.18      0.18      0.22      0.01         0.01
  3325-1377                   0.19      0.19      0.24      0.01         0.01
  3327-3328                   0.18      0.18      0.26      0.01         0.01
  3328-1704                   0.26      0.26      0.29      0.14         0.01
  3334-3233                   1.08      1.08     23.84      0.42         0.41
  3337-3338                   0.01      0.01      0.09      0.01         0.01
  3338-1377                   0.09      0.09      0.24      0.01         0.01
  3344-1815                   0.53      0.53      1.32      0.01         0.01
  3345-1793                   0.01      0.01      0.17      0.01         0.01
  3350-2077                   0.01      0.01     23.84      0.01         0.01
  3355-3025                   0.12      0.12      0.19      0.01         0.01
  3357-2833                   0.01      0.01      0.45      0.01         0.01
  3358-708                    0.01      0.01     23.86      0.01         0.01
  3360-164                    0.16      0.16     23.85      0.01         0.01
  3361-3360                   0.17      0.20      0.17      0.12         0.08
  3362-464                    0.01      0.01      0.72      0.01         0.01
  3375-3378                   0.10      0.12      0.12      0.11         0.06
  3376-3375                   0.01      0.01      0.12      0.01         0.01
  3377-820                    0.01      0.01      0.09      0.01         0.01
  3378-733                    0.10      0.10      0.28      0.01         0.01
  3380-2455                   0.01      0.01      0.20      0.01         0.01
  3381-1820                   0.01      0.01     23.83      0.01         0.01
  

  Analysis begun on:  Sun Nov  9 01:24:19 2025
  Analysis ended on:  Sun Nov  9 01:24:36 2025
  Total elapsed time: 00:00:17